grids/grid_uri/cigre/cigre_eu_lv_com/validation/Red_comercial.dss
Clear

// Definimos la frecuencia base
Set DefaultBaseFrequency=50

// ***********************************************************************************************************************************************
// VSOURCE DEFINITION
New Object=circuit.Comercial_Subnetwork bus1=Sourcebus  basekv=20  pu=1.0  Angle=0  Frequency=50  Phases=3
Set VoltageBases=[20 0.4]

// ***********************************************************************************************************************************************
// TRANSFORMER DEFINITON
New Transformer.T1 Phases=3  Windings=2  XHL=4.0 wdg=1  bus=SourceBus  conn=delta  kv=20  kva=300  %r=0.5 wdg=2  bus=C_01.1.2.3.4  conn=wye  kv=0.4  kva=300 %r=0.5

//***********************************************************************************************************************************************
//LINE CODES DEFINITION
New linecode.OH1  nphases=4  BaseFreq=50  units=km Rmatrix = [0.540 | 0.049 0.540 | 0.049 0.049 0.540 | 0.049 0.049 0.049 0.540] Xmatrix = [0.777 | 0.505 0.777 | 0.462 0.505 0.777 | 0.436 0.462 0.505 0.777]
New linecode.OH2  nphases=4  BaseFreq=50  units=km Rmatrix = [1.369 | 0.049 1.369 | 0.049 0.049 1.369 | 0.049 0.049 0.049 1.369] Xmatrix = [0.812 | 0.505 0.812 | 0.462 0.505 0.812 | 0.436 0.462 0.505 0.812]
New linecode.OH3  nphases=4  BaseFreq=50  units=km Rmatrix = [2.065 | 0.049 2.065 | 0.049 0.049 2.065 | 0.049 0.049 0.049 2.065] Xmatrix = [0.825 | 0.505 0.825 | 0.462 0.505 0.825 | 0.436 0.462 0.505 0.825]

// ***********************************************************************************************************************************************
// LINE DEFINITION 
New Line.Line_01 Phases=4  Bus1=C_01.1.2.3.4  Bus2=C_02.1.2.3.4 LineCode=OH1  Length=0.030  units=km
New Line.Line_02 Phases=4  Bus1=C_02.1.2.3.4  Bus2=C_03.1.2.3.4 LineCode=OH1  Length=0.030  units=km
New Line.Line_03 Phases=4  Bus1=C_03.1.2.3.4  Bus2=C_04.1.2.3.4 LineCode=OH1  Length=0.030  units=km
New Line.Line_04 Phases=4  Bus1=C_04.1.2.3.4  Bus2=C_05.1.2.3.4 LineCode=OH1  Length=0.030  units=km
New Line.Line_05 Phases=4  Bus1=C_05.1.2.3.4  Bus2=C_06.1.2.3.4 LineCode=OH1  Length=0.030  units=km
New Line.Line_06 Phases=4  Bus1=C_06.1.2.3.4  Bus2=C_07.1.2.3.4 LineCode=OH1  Length=0.030  units=km
New Line.Line_07 Phases=4  Bus1=C_07.1.2.3.4  Bus2=C_08.1.2.3.4 LineCode=OH1  Length=0.030  units=km
New Line.Line_08 Phases=4  Bus1=C_08.1.2.3.4  Bus2=C_09.1.2.3.4 LineCode=OH1  Length=0.030  units=km
New Line.Line_09 Phases=4  Bus1=C_03.1.2.3.4  Bus2=C_10.1.2.3.4 LineCode=OH2  Length=0.030  units=km
New Line.Line_10 Phases=4  Bus1=C_10.1.2.3.4  Bus2=C_11.1.2.3.4 LineCode=OH2  Length=0.030  units=km
New Line.Line_11 Phases=4  Bus1=C_11.1.2.3.4  Bus2=C_12.1.2.3.4 LineCode=OH3  Length=0.030  units=km
New Line.Line_12 Phases=4  Bus1=C_11.1.2.3.4  Bus2=C_13.1.2.3.4 LineCode=OH3  Length=0.030  units=km
New Line.Line_13 Phases=4  Bus1=C_10.1.2.3.4  Bus2=C_14.1.2.3.4 LineCode=OH3  Length=0.030  units=km
New Line.Line_14 Phases=4  Bus1=C_05.1.2.3.4  Bus2=C_15.1.2.3.4 LineCode=OH2  Length=0.030  units=km
New Line.Line_15 Phases=4  Bus1=C_15.1.2.3.4  Bus2=C_16.1.2.3.4 LineCode=OH2  Length=0.030  units=km
New Line.Line_16 Phases=4  Bus1=C_15.1.2.3.4  Bus2=C_18.1.2.3.4 LineCode=OH3  Length=0.030  units=km
New Line.Line_17 Phases=4  Bus1=C_16.1.2.3.4  Bus2=C_17.1.2.3.4 LineCode=OH3  Length=0.030  units=km
New Line.Line_18 Phases=4  Bus1=C_08.1.2.3.4  Bus2=C_19.1.2.3.4 LineCode=OH3  Length=0.030  units=km
New Line.Line_19 Phases=4  Bus1=C_09.1.2.3.4  Bus2=C_20.1.2.3.4 LineCode=OH3  Length=0.030  units=km

// ***********************************************************************************************************************************************
// LOAD-SHAPE DEFINITION
New LoadShape.LS_C01 npts=25  interval=1  mult=[1.00 0.23  0.2  0.21  0.23  0.24  0.25  0.35  0.50  0.70  0.80  0.85  0.90  0.92  0.90  0.85  0.85  0.90  1.00  0.80  0.70  0.62  0.50  0.30  0.20]
New LoadShape.LS_C12 npts=25  interval=1  mult=[1.00 0.23  0.2  0.21  0.23  0.24  0.25  0.35  0.50  0.70  0.80  0.85  0.90  0.92  0.90  0.85  0.85  0.90  1.00  0.80  0.70  0.62  0.50  0.30  0.20]
New LoadShape.LS_C13 npts=25  interval=1  mult=[1.00 0.23  0.2  0.21  0.23  0.24  0.25  0.35  0.50  0.70  0.80  0.85  0.90  0.92  0.90  0.85  0.85  0.90  1.00  0.80  0.70  0.62  0.50  0.30  0.20]
New LoadShape.LS_C14 npts=25  interval=1  mult=[1.00 0.23  0.2  0.21  0.23  0.24  0.25  0.35  0.50  0.70  0.80  0.85  0.90  0.92  0.90  0.85  0.85  0.90  1.00  0.80  0.70  0.62  0.50  0.30  0.20]
New LoadShape.LS_C17 npts=25  interval=1  mult=[1.00 0.23  0.2  0.21  0.23  0.24  0.25  0.35  0.50  0.70  0.80  0.85  0.90  0.92  0.90  0.85  0.85  0.90  1.00  0.80  0.70  0.62  0.50  0.30  0.20]
New LoadShape.LS_C18 npts=25  interval=1  mult=[1.00 0.23  0.2  0.21  0.23  0.24  0.25  0.35  0.50  0.70  0.80  0.85  0.90  0.92  0.90  0.85  0.85  0.90  1.00  0.80  0.70  0.62  0.50  0.30  0.20]
New LoadShape.LS_C19 npts=25  interval=1  mult=[1.00 0.23  0.2  0.21  0.23  0.24  0.25  0.35  0.50  0.70  0.80  0.85  0.90  0.92  0.90  0.85  0.85  0.90  1.00  0.80  0.70  0.62  0.50  0.30  0.20]
New LoadShape.LS_C20 npts=25  interval=1  mult=[1.00 0.23  0.2  0.21  0.23  0.24  0.25  0.35  0.50  0.70  0.80  0.85  0.90  0.92  0.90  0.85  0.85  0.90  1.00  0.80  0.70  0.62  0.50  0.30  0.20]

// ***********************************************************************************************************************************************
// LOAD DEFINITION
New Load.Load_C01 phases=3  Bus1=C_01.1.2.3.4  conn=wye  Model=1 Basefreq=50 kv=0.4  kw=108.0  kvar=52.306787  vminpu=0.80  vmaxpu=1.20  Daily=LS_C01
New Load.Load_C12 phases=3  Bus1=C_12.1.2.3.4  conn=wye  Model=1 Basefreq=50 kv=0.4  kw=018.0  kvar=08.717798  vminpu=0.80  vmaxpu=1.20  Daily=LS_C12
New Load.Load_C13 phases=3  Bus1=C_13.1.2.3.4  conn=wye  Model=1 Basefreq=50 kv=0.4  kw=018.0  kvar=08.717798  vminpu=0.80  vmaxpu=1.20  Daily=LS_C13
New Load.Load_C14 phases=3  Bus1=C_14.1.2.3.4  conn=wye  Model=1 Basefreq=50 kv=0.4  kw=022.5  kvar=10.897247  vminpu=0.80  vmaxpu=1.20  Daily=LS_C14
New Load.Load_C17 phases=3  Bus1=C_17.1.2.3.4  conn=wye  Model=1 Basefreq=50 kv=0.4  kw=022.5  kvar=10.897247  vminpu=0.80  vmaxpu=1.20  Daily=LS_C17
New Load.Load_C18 phases=3  Bus1=C_18.1.2.3.4  conn=wye  Model=1 Basefreq=50 kv=0.4  kw=007.2  kvar=03.487119  vminpu=0.80  vmaxpu=1.20  Daily=LS_C18
New Load.Load_C19 phases=3  Bus1=C_19.1.2.3.4  conn=wye  Model=1 Basefreq=50 kv=0.4  kw=014.4  kvar=06.974238  vminpu=0.80  vmaxpu=1.20  Daily=LS_C19
New Load.Load_C20 phases=3  Bus1=C_20.1.2.3.4  conn=wye  Model=1 Basefreq=50 kv=0.4  kw=007.2  kvar=03.487119  vminpu=0.80  vmaxpu=1.20  Daily=LS_C20

// ***********************************************************************************************************************************************
// MONITOR DEFINITION
New monitor.Linea01_power  element=Line.Line_01  terminal=1  mode=1  ppolar=no
New monitor.Carga01_power  element=Load.Load_C01  terminal=1  mode=1  ppolar=no
New energymeter.medidor  element=Line.Line_01  terminal=1

// ***********************************************************************************************************************************************
// SOLUTION
Makebuslist
Calcvoltagebases
solve  maxcontrol=100
set controlmode=static
set mode=daily stepsize=1h number=1
solve

Show	voltages
